LTspice 26.0.0 for Windows
Circuit: C:\Users\arnav\Documents\github\quartz\content\University\ECE 3399\Project\Simulation\h_bridge.net
Start Time: Fri Jan 16 20:35:59 2026
solver = Normal
Maximum thread count: 20
tnom = 27
temp = 27
method = trap
Direct Newton iteration succeeded in finding operating point.
Total elapsed time: 0.409 seconds.

Files loaded:
C:\Users\arnav\Documents\github\quartz\content\University\ECE 3399\Project\Simulation\h_bridge.net
C:\Users\arnav\AppData\Local\LTspice\lib\cmp\standard.mos

