LTspice 26.0.0 for Windows
Circuit: C:\Users\arnav\Documents\github\quartz\content\University\ECE 3399\Project\Simulation\level_shifter.net
Start Time: Wed Jan 14 16:35:55 2026

.step r_pull=1000
solver = Normal
Maximum thread count: 20
tnom = 27
temp = 27
method = trap
Direct Newton iteration succeeded in finding operating point.

.step r_pull=1100
Direct Newton iteration succeeded in finding operating point.

.step r_pull=1200
Direct Newton iteration succeeded in finding operating point.

.step r_pull=1300
Direct Newton iteration succeeded in finding operating point.

.step r_pull=1400
Direct Newton iteration succeeded in finding operating point.

.step r_pull=1500
Direct Newton iteration succeeded in finding operating point.

.step r_pull=1600
Direct Newton iteration succeeded in finding operating point.

.step r_pull=1700
Direct Newton iteration succeeded in finding operating point.

.step r_pull=1800
Direct Newton iteration succeeded in finding operating point.

.step r_pull=1900
Direct Newton iteration succeeded in finding operating point.

.step r_pull=2000
Direct Newton iteration succeeded in finding operating point.
Total elapsed time: 0.854 seconds.

Files loaded:
C:\Users\arnav\Documents\github\quartz\content\University\ECE 3399\Project\Simulation\level_shifter.net
C:\Users\arnav\AppData\Local\LTspice\lib\cmp\standard.mos

